REMARK  8 active torsions:
REMARK  status: ('A' for Active; 'I' for Inactive)
REMARK    1  A    between atoms: C13_2  and  O02_26 
REMARK    2  A    between atoms: C01_9  and  C02_10 
REMARK       I    between atoms: C01_9  and  N01_14 
REMARK    3  A    between atoms: C03_11  and  C04_12 
REMARK    4  A    between atoms: C04_12  and  N02_15 
REMARK    5  A    between atoms: C12_24  and  N01_14 
REMARK    6  A    between atoms: C09_22  and  N05_30 
REMARK    7  A    between atoms: C16_27  and  O02_26 
REMARK    8  A    between atoms: C19_31  and  N05_30 
ROOT
HETATM    1  C10 93J A 502       5.438   0.333 -20.159  0.61 47.24     0.021 A 
HETATM    2  C13 93J A 502       4.178  -2.163 -20.211  0.61 49.45     0.097 A 
HETATM    3  C15 93J A 502       4.034   0.257 -20.217  0.61 47.76     0.047 A 
HETATM    4  N03 93J A 502       3.212   1.333 -20.260  0.61 48.73    -0.364 N 
ATOM      5  H03 93J A 502       2.199   1.226 -20.319  1.00  0.00     0.165 HD
HETATM    6  C07 93J A 502       3.766   2.505 -20.223  0.61 48.89     0.113 A 
HETATM    7  C08 93J A 502       5.188   2.705 -20.213  0.61 50.13     0.087 A 
HETATM    8  C09 93J A 502       6.041   1.602 -20.121  0.61 48.49     0.067 A 
HETATM    9  C11 93J A 502       6.193  -0.878 -20.145  0.61 46.71     0.048 A 
HETATM   10  C12 93J A 502       5.584  -2.103 -20.151  0.61 48.61     0.069 A 
HETATM   11  C14 93J A 502       3.429  -1.012 -20.243  0.61 47.82     0.069 A 
HETATM   12  C18 93J A 502       5.477   4.110 -20.231  0.61 50.01     0.103 C 
HETATM   13  N04 93J A 502       5.635   5.235 -20.297  0.61 50.48    -0.191 NA
ENDROOT
BRANCH   8  14
HETATM   14  N05 93J A 502       7.372   1.674 -20.106  0.61 46.05    -0.354 N 
HETATM   15 5HN0 93J A 502       7.828   0.912 -20.587  0.61  0.00     0.166 HD
BRANCH  14  16
HETATM   16  C19 93J A 502       8.233   2.578 -19.566  0.61 46.13     0.034 A 
HETATM   17  C20 93J A 502       7.964   3.314 -18.413  0.61 48.11     0.056 A 
HETATM   18  C21 93J A 502       8.927   4.194 -17.955  0.61 47.82     0.074 A 
HETATM   19  C22 93J A 502      10.130   4.321 -18.628  0.61 50.60     0.138 A 
HETATM   20 CL1  93J A 502       8.541   5.130 -16.564  0.61 49.42    -0.081 Cl
HETATM   21  C23 93J A 502      10.424   3.565 -19.721  0.61 48.66     0.046 A 
HETATM   22  F01 93J A 502      11.087   5.132 -18.175  0.61 52.48    -0.204 F 
HETATM   23  C24 93J A 502       9.466   2.689 -20.197  0.61 48.10     0.032 A 
ENDBRANCH  14  16
ENDBRANCH   8  14
BRANCH  10  24
HETATM   24  N01 93J A 502       6.403  -3.272 -20.173  0.61 48.36    -0.321 N 
HETATM   25  C01 93J A 502       7.754  -3.368 -20.338  0.61 49.56     0.245 C 
HETATM   26  O01 93J A 502       8.466  -2.365 -20.366  0.61 48.77    -0.268 OA
HETATM   27  H01 93J A 502       5.916  -4.148 -20.050  0.61  0.00     0.169 HD
BRANCH  25  28
HETATM   28  C02 93J A 502       8.328  -4.754 -20.478  0.61 50.77     0.072 C 
HETATM   29  C03 93J A 502       9.576  -5.128 -20.889  0.61 52.67     0.006 C 
BRANCH  29  30
HETATM   30  C04 93J A 502      10.290  -6.476 -20.660  0.61 52.97     0.261 C 
BRANCH  30  31
HETATM   31  N02 93J A 502      11.501  -6.851 -21.480  0.61 53.12    -0.076 N 
HETATM   32  C05 93J A 502      11.373  -8.152 -22.119  0.61 52.13     0.269 C 
HETATM   33  C06 93J A 502      12.739  -6.849 -20.711  0.61 52.33     0.269 C 
HETATM   34 2HN0 93J A 502      11.597  -6.162 -22.212  0.61  0.00     0.279 HD
ENDBRANCH  30  31
ENDBRANCH  29  30
ENDBRANCH  25  28
ENDBRANCH  10  24
BRANCH   2  35
HETATM   35  O02 93J A 502       3.555  -3.384 -20.270  0.61 51.73    -0.349 OA
BRANCH  35  36
HETATM   36  C16 93J A 502       2.142  -3.422 -20.024  0.61 51.32     0.171 C 
HETATM   37  C17 93J A 502       1.966  -3.254 -18.575  0.61 49.27     0.034 C 
ENDBRANCH  35  36
ENDBRANCH   2  35
TORSDOF 8
