REMARK  7 active torsions:
REMARK  status: ('A' for Active; 'I' for Inactive)
REMARK    1  A    between atoms: C13@B_18  and  N1@B_2 
REMARK    2  A    between atoms: C14@B_19  and  O1@B_3 
REMARK    3  A    between atoms: C18@B_22  and  O2@B_5 
REMARK    4  A    between atoms: C4@B_7  and  C7@B_10 
REMARK    5  A    between atoms: C7@B_10  and  C8@B_11 
REMARK    6  A    between atoms: C13@B_18  and  C14@B_19 
REMARK    7  A    between atoms: C14@B_19  and  C15@B_20 
ROOT
HETATM    1  N1 BQEL A 401       5.205   3.121 -21.783  0.50 27.85    -0.064 N 
HETATM    2  C8 BQEL A 401       2.747   2.799 -23.487  0.50 27.54    -0.007 C 
HETATM    3  C9 BQEL A 401       3.648   4.035 -23.559  0.50 27.80     0.032 C 
HETATM    4  C10BQEL A 401       4.421   4.309 -22.261  0.50 27.23     0.236 C 
HETATM    5  C11BQEL A 401       4.305   1.938 -21.716  0.50 30.32     0.236 C 
HETATM    6  C12BQEL A 401       3.657   1.667 -23.062  0.50 28.09     0.032 C 
HETATM    7  HN BQEL A 401       5.974   2.937 -22.412  0.50  0.00     0.280 HD
ENDROOT
BRANCH   1   8
HETATM    8  C13BQEL A 401       5.726   3.393 -20.392  0.50 42.35     0.217 C 
HETATM    9  C24BQEL A 401       6.015   4.898 -20.292  0.50 39.02     0.043 C 
BRANCH   8  10
HETATM   10  C14BQEL A 401       6.888   2.369 -19.852  0.50 45.40     0.181 C 
BRANCH  10  11
HETATM   11  O1 BQEL A 401       7.332   1.505 -20.848  0.50 47.58    -0.389 OA
HETATM   12  HO1BQEL A 401       7.740   2.013 -21.554  0.50  0.00     0.210 HD
ENDBRANCH  10  11
BRANCH  10  13
HETATM   13  C15BQEL A 401       8.192   3.000 -19.328  0.50 43.07    -0.028 A 
HETATM   14  C16BQEL A 401       9.417   2.794 -19.966  0.50 43.73     0.012 A 
HETATM   15  C2 BQEL A 401      10.597   3.359 -19.488  0.50 45.04     0.037 A 
HETATM   16  C18BQEL A 401      10.562   4.147 -18.346  0.50 44.40     0.065 A 
HETATM   17  C3 BQEL A 401       9.363   4.368 -17.678  0.50 44.42     0.037 A 
HETATM   18  C19BQEL A 401       8.201   3.784 -18.165  0.50 43.78     0.012 A 
BRANCH  16  19
HETATM   19  O2 BQEL A 401      11.683   4.734 -17.829  0.50 42.82    -0.361 OA
HETATM   20  HO BQEL A 401      11.624   5.686 -17.935  0.50  0.00     0.217 HD
ENDBRANCH  16  19
ENDBRANCH  10  13
ENDBRANCH   8  10
ENDBRANCH   1   8
BRANCH   2  21
HETATM   21  C7 BQEL A 401       1.980   2.523 -24.786  0.50 26.67     0.043 C 
BRANCH  21  22
HETATM   22  C4 BQEL A 401       0.670   3.240 -24.952  0.50 24.87    -0.058 A 
HETATM   23  C02BQEL A 401       0.583   4.429 -25.685  0.50 23.71     0.007 A 
HETATM   24  C01BQEL A 401      -0.631   5.093 -25.832  0.50 23.16     0.001 A 
HETATM   25  C1 BQEL A 401      -1.782   4.591 -25.252  0.50 22.32     0.000 A 
HETATM   26  C6 BQEL A 401      -1.707   3.412 -24.519  0.50 23.01     0.001 A 
HETATM   27  C5 BQEL A 401      -0.495   2.749 -24.369  0.50 23.91     0.007 A 
ENDBRANCH  21  22
ENDBRANCH   2  21
TORSDOF 7
