REMARK  5 active torsions:
REMARK  status: ('A' for Active; 'I' for Inactive)
REMARK    1  A    between atoms: C12@C_13  and  C13@C_2 
REMARK       I    between atoms: C13@C_2  and  N14@C_18 
REMARK    2  A    between atoms: C02@C_6  and  C03@C_7 
REMARK    3  A    between atoms: C05@C_9  and  O06@C_19 
REMARK    4  A    between atoms: C07@C_10  and  O08@C_20 
REMARK    5  A    between atoms: C09@C_11  and  O08@C_20 
ROOT
HETATM    1  C10CRQN A 401       8.228  -0.750  20.735  0.44 48.28     0.041 A 
HETATM    2  C17CRQN A 401       6.350  -0.021  21.978  0.44 44.84     0.151 A 
HETATM    3  C09CRQN A 401       7.580  -0.626  21.940  0.44 52.55     0.114 A 
HETATM    4  C11CRQN A 401       7.639  -0.235  19.588  0.44 42.43     0.019 A 
HETATM    5  C12CRQN A 401       6.405   0.413  19.631  0.44 38.46     0.029 A 
HETATM    6  C16CRQN A 401       5.771   0.513  20.839  0.44 42.56     0.061 A 
HETATM    7  F18CRQN A 401       5.726   0.073  23.168  0.44 57.80    -0.203 F 
ENDROOT
BRANCH   3   8
HETATM    8  O08CRQN A 401       8.073  -1.133  23.145  0.44 56.48    -0.305 OA
BRANCH   8   9
HETATM    9  C07CRQN A 401       9.454  -1.317  23.297  0.44 53.62     0.112 A 
HETATM   10  C05CRQN A 401       9.851  -2.547  23.790  0.44 55.76     0.100 A 
HETATM   11  C04CRQN A 401      11.187  -2.846  24.008  0.44 58.56     0.049 A 
HETATM   12  C03CRQN A 401      12.138  -1.895  23.740  0.44 56.85    -0.017 A 
HETATM   13  C20CRQN A 401      11.771  -0.655  23.260  0.44 52.89     0.125 A 
HETATM   14  C19CRQN A 401      10.426  -0.342  23.026  0.44 53.92     0.083 A 
HETATM   15  F21CRQN A 401      12.782   0.203  23.024  0.44 50.08    -0.205 F 
BRANCH  10  16
HETATM   16  O06CRQN A 401       8.889  -3.502  24.055  0.44 61.47    -0.358 OA
HETATM   17  H06CRQN A 401       9.050  -4.278  23.513  0.44  0.00     0.217 HD
ENDBRANCH  10  16
BRANCH  12  18
HETATM   18  C02CRQN A 401      13.606  -2.193  23.979  0.44 52.07     0.037 C 
HETATM   19  C01CRQN A 401      13.912  -2.339  25.464  0.44 60.51     0.010 C 
ENDBRANCH  12  18
ENDBRANCH   8   9
ENDBRANCH   3   8
BRANCH   5  20
HETATM   20  C13CRQN A 401       5.777   0.985  18.360  0.44 36.42     0.228 C 
HETATM   21  N14CRQN A 401       4.489   1.622  18.364  0.44 33.25    -0.268 NA
HETATM   22 1H14CRQN A 401       4.592   2.587  18.642  0.44  0.00     0.127 HD
HETATM   23 2H14CRQN A 401       4.088   1.579  17.438  0.44  0.00     0.127 HD
HETATM   24  O15CRQN A 401       6.326   0.907  17.341  0.44 22.80    -0.274 OA
ENDBRANCH   5  20
TORSDOF 5
