REMARK  9 active torsions:
REMARK  status: ('A' for Active; 'I' for Inactive)
REMARK    1  A    between atoms: CA_3  and  N_1 
REMARK    2  A    between atoms: C_6  and  CA_3 
REMARK    3  A    between atoms: CA_3  and  CB_4 
REMARK    4  A    between atoms: CB_4  and  SG_5 
REMARK    5  A    between atoms: OD_8  and  SG_5 
REMARK    6  A    between atoms: C2_27  and  N1_11 
REMARK       I    between atoms: C4_14  and  N1_11 
REMARK    7  A    between atoms: C4_14  and  C5_15 
REMARK    8  A    between atoms: C10_19  and  C7_17 
REMARK    9  A    between atoms: C11_23  and  C12_24 
ROOT
HETATM    1  CA  CSO A 145       7.986  -5.272  16.536  1.00 30.22     0.147 C 
ENDROOT
BRANCH   1   2
HETATM    2  C   CSO A 145       8.109  -6.694  16.004  1.00 29.79     0.256 C 
HETATM    3  O   CSO A 145       7.371  -7.589  16.414  1.00 28.41    -0.305 OA
ENDBRANCH   1   2
BRANCH   1   4
HETATM    4  N   CSO A 145       6.581  -4.875  16.632  1.00 29.84    -0.420 N 
HETATM    5  H   CSO A 145       6.248  -4.430  17.475  1.00  0.00     0.150 HD
ATOM      6  HN  CSO A 145       5.944  -5.046  15.854  1.00  0.00     0.150 HD
ENDBRANCH   1   4
BRANCH   1   7
HETATM    7  CB  CSO A 145       8.690  -5.143  17.892  1.00 30.20     0.136 C 
BRANCH   7   8
HETATM    8  SG  CSO A 145       8.211  -3.602  18.713  1.00 34.02    -0.013 SA
BRANCH   8   9
HETATM    9  OD  CSO A 145       6.914  -3.875  19.899  1.00 40.26    -0.330 OA
HETATM   10  HD  CSO A 145       6.683  -3.042  20.318  1.00  0.00     0.227 HD
ENDBRANCH   8   9
ENDBRANCH   7   8
ENDBRANCH   1   7
TORSDOF 9
