REMARK  8 active torsions:
REMARK  status: ('A' for Active; 'I' for Inactive)
REMARK    1  A    between atoms: C3_3  and  O6_37 
REMARK    2  A    between atoms: C11_11  and  O1_32 
REMARK    3  A    between atoms: C16_16  and  O2_33 
REMARK    4  A    between atoms: C22_22  and  C23_23 
REMARK    5  A    between atoms: C22_22  and  C29_29 
REMARK    6  A    between atoms: C23_23  and  C24_24 
REMARK    7  A    between atoms: C24_24  and  C25_25 
REMARK    8  A    between atoms: C31_30  and  O2_33 
ROOT
HETATM    1  C1  FUA A 401       9.263   1.558  29.411  0.79 33.35     0.012 C 
HETATM    2  C2  FUA A 401       9.389   2.318  30.731  0.79 33.17     0.033 C 
HETATM    3  C3  FUA A 401       8.296   3.374  30.833  0.79 32.76     0.122 C 
HETATM    4  C4  FUA A 401       6.903   2.730  30.717  0.79 33.60     0.015 C 
HETATM    5  C5  FUA A 401       6.785   1.893  29.432  0.79 33.51     0.000 C 
HETATM    6  C6  FUA A 401       5.396   1.215  29.331  0.79 33.76     0.007 C 
HETATM    7  C7  FUA A 401       5.319  -0.014  28.423  0.79 34.09     0.011 C 
HETATM    8  C8  FUA A 401       6.337   0.065  27.280  0.79 33.99    -0.029 C 
HETATM    9  C9  FUA A 401       7.773   0.033  27.966  0.79 33.45     0.032 C 
HETATM   10  C10 FUA A 401       7.902   0.856  29.289  0.79 33.25    -0.033 C 
HETATM   11  C11 FUA A 401       8.923   0.117  26.935  0.79 33.40     0.124 C 
HETATM   12  C12 FUA A 401       8.770  -1.072  25.964  0.79 33.91     0.042 C 
HETATM   13  C13 FUA A 401       7.411  -1.048  25.259  0.79 34.74     0.029 C 
HETATM   14  C14 FUA A 401       6.271  -1.171  26.335  0.79 34.73    -0.026 C 
HETATM   15  C15 FUA A 401       5.044  -1.295  25.452  0.79 35.68     0.047 C 
HETATM   16  C16 FUA A 401       5.500  -2.202  24.294  0.79 36.94     0.163 C 
HETATM   17  C17 FUA A 401       7.022  -2.104  24.256  0.79 35.73    -0.033 C 
HETATM   18  C18 FUA A 401       5.849   3.832  30.701  0.79 33.71     0.013 C 
HETATM   19  C19 FUA A 401       7.794  -0.179  30.436  0.79 33.18     0.016 C 
HETATM   20  C20 FUA A 401       5.983   1.350  26.442  0.79 32.98     0.016 C 
HETATM   21  C21 FUA A 401       6.376  -2.511  27.099  0.79 35.07     0.016 C 
HETATM   22  C22 FUA A 401       7.727  -2.553  23.228  0.79 35.76     0.024 C 
ENDROOT
BRANCH  16  23
HETATM   23  O2  FUA A 401       5.135  -3.564  24.540  0.79 39.09    -0.312 OA
BRANCH  23  24
HETATM   24  C31 FUA A 401       3.859  -3.935  24.332  0.79 40.74     0.255 C 
HETATM   25  C32 FUA A 401       3.651  -5.336  23.918  0.79 41.29     0.126 C 
HETATM   26  O3  FUA A 401       2.924  -3.157  24.484  0.79 41.55    -0.266 OA
ENDBRANCH  23  24
ENDBRANCH  16  23
BRANCH  22  27
HETATM   27  C23 FUA A 401       9.210  -2.593  23.187  0.79 35.81     0.049 C 
BRANCH  27  28
HETATM   28  C24 FUA A 401       9.766  -1.463  22.361  0.79 35.96     0.032 C 
BRANCH  28  29
HETATM   29  C25 FUA A 401      11.258  -1.602  22.373  0.79 36.08    -0.024 C 
HETATM   30  C26 FUA A 401      12.057  -0.805  23.088  0.79 35.98    -0.091 C 
HETATM   31  C27 FUA A 401      13.522  -1.062  23.038  0.79 35.99     0.042 C 
HETATM   32  C28 FUA A 401      11.543   0.332  23.920  0.79 35.99     0.042 C 
ENDBRANCH  28  29
ENDBRANCH  27  28
ENDBRANCH  22  27
BRANCH  22  33
HETATM   33  C29 FUA A 401       7.062  -3.528  22.293  0.79 35.49     0.205 C 
HETATM   34  O4  FUA A 401       6.373  -3.002  21.364  0.79 35.91    -0.644 OA
HETATM   35  O5  FUA A 401       7.196  -4.740  22.478  0.79 34.86    -0.644 OA
ENDBRANCH  22  33
BRANCH  11  36
HETATM   36  O1  FUA A 401       8.932   1.310  26.221  0.79 33.12    -0.395 OA
HETATM   37  HO1 FUA A 401       9.837   1.547  26.005  0.79  0.00     0.210 HD
ENDBRANCH  11  36
BRANCH   3  38
HETATM   38  O6  FUA A 401       8.452   4.292  29.794  0.79 31.98    -0.395 OA
HETATM   39  HO6 FUA A 401       8.120   5.149  30.072  0.79  0.00     0.210 HD
ENDBRANCH   3  38
TORSDOF 8
