REMARK  6 active torsions:
REMARK  status: ('A' for Active; 'I' for Inactive)
REMARK    1  A    between atoms: C09_13  and  C10_1 
REMARK    2  A    between atoms: C09_13  and  C13_2 
REMARK    3  A    between atoms: C02_7  and  C03_8 
REMARK       I    between atoms: C02_7  and  N22_20 
REMARK    4  A    between atoms: C06_11  and  N07_19 
REMARK    5  A    between atoms: C08_12  and  C09_13 
REMARK       I    between atoms: C08_12  and  N07_19 
REMARK    6  A    between atoms: N22_20  and  O23_23 
ROOT
HETATM    1  C08 QCP A 506       7.478  25.966  -0.424  0.79 51.42     0.231 C 
HETATM    2  N07 QCP A 506       7.932  27.190  -1.058  0.79 52.26    -0.327 N 
HETATM    3  O19 QCP A 506       6.464  25.957   0.189  0.79 48.13    -0.272 OA
HETATM    4  H07 QCP A 506       8.796  27.198  -1.580  0.79  0.00     0.169 HD
ENDROOT
BRANCH   2   5
HETATM    5  C06 QCP A 506       7.143  28.402  -0.941  0.79 43.04     0.034 A 
HETATM    6  C05 QCP A 506       5.824  28.691  -0.636  0.79 43.85     0.030 A 
HETATM    7  C04 QCP A 506       5.392  30.007  -0.613  0.79 31.32     0.019 A 
HETATM    8  C03 QCP A 506       6.279  31.032  -0.894  0.79 37.83     0.034 A 
HETATM    9  C21 QCP A 506       7.600  30.742  -1.199  0.79 35.10     0.019 A 
HETATM   10  C20 QCP A 506       8.032  29.426  -1.222  0.79 41.05     0.030 A 
BRANCH   8  11
HETATM   11  C02 QCP A 506       5.803  32.484  -0.869  0.79 44.84     0.275 C 
HETATM   12  N22 QCP A 506       6.717  33.553  -1.228  0.79 49.50    -0.233 N 
HETATM   13  H22 QCP A 506       7.667  33.337  -1.494  0.79  0.00     0.197 HD
HETATM   14  O01 QCP A 506       4.689  32.736  -0.556  0.79 50.60    -0.265 OA
BRANCH  12  15
HETATM   15  O23 QCP A 506       6.281  34.888  -1.205  0.79 50.44    -0.287 OA
HETATM   16  H23 QCP A 506       7.002  35.465  -1.467  0.79  0.00     0.244 HD
ENDBRANCH  12  15
ENDBRANCH   8  11
ENDBRANCH   2   5
BRANCH   1  17
HETATM   17  C09 QCP A 506       8.307  24.690  -0.548  0.79 45.24     0.114 C 
BRANCH  17  18
HETATM   18  C10 QCP A 506       8.736  24.224   0.841  0.79 62.48    -0.005 C 
HETATM   19  C11 QCP A 506       9.671  23.024   0.707  0.79 42.33     0.011 C 
HETATM   20  C12 QCP A 506       9.464  25.360   1.555  0.79 38.48     0.011 C 
ENDBRANCH  17  18
BRANCH  17  21
HETATM   21  C13 QCP A 506       7.471  23.601  -1.217  0.79 41.96    -0.045 A 
HETATM   22  C14 QCP A 506       6.654  22.786  -0.452  0.79 40.30     0.008 A 
HETATM   23  C15 QCP A 506       5.895  21.799  -1.059  0.79 39.80     0.001 A 
HETATM   24  C16 QCP A 506       5.954  21.628  -2.432  0.79 27.90     0.000 A 
HETATM   25  C17 QCP A 506       6.770  22.443  -3.198  0.79 39.78     0.001 A 
HETATM   26  C18 QCP A 506       7.529  23.430  -2.590  0.79 31.40     0.008 A 
ENDBRANCH  17  21
ENDBRANCH   1  17
TORSDOF 6
