REMARK  5 active torsions:
REMARK  status: ('A' for Active; 'I' for Inactive)
REMARK    1  A    between atoms: C02_5  and  C05_8 
REMARK    2  A    between atoms: C05_8  and  C07_9 
REMARK    3  A    between atoms: C07_9  and  N08_16 
REMARK    4  A    between atoms: C07_9  and  O13_20 
REMARK    5  A    between atoms: C14_12  and  O13_20 
ROOT
HETATM    1  C07 RQH A 403      27.289  -4.851   3.872  0.65 51.21     0.306 C 
ENDROOT
BRANCH   1   2
HETATM    2  C05 RQH A 403      27.780  -3.635   4.576  0.65 50.69     0.183 C 
HETATM    3  O06 RQH A 403      28.909  -3.622   5.009  0.65 47.65    -0.292 OA
BRANCH   2   4
HETATM    4  C02 RQH A 403      26.837  -2.396   4.660  0.65 51.24     0.014 C 
HETATM    5  C01 RQH A 403      25.469  -2.592   3.962  0.65 52.57     0.023 C 
HETATM    6  C03 RQH A 403      26.562  -2.016   6.112  0.65 53.54     0.023 C 
HETATM    7  C04 RQH A 403      27.527  -1.255   3.924  0.65 50.94     0.023 C 
ENDBRANCH   2   4
ENDBRANCH   1   2
BRANCH   1   8
HETATM    8  N08 RQH A 403      28.431  -5.290   2.890  0.65 48.21    -0.318 N 
HETATM    9  C09 RQH A 403      29.264  -6.438   3.026  0.65 44.59     0.112 A 
HETATM   10  C10 RQH A 403      30.177  -6.408   1.980  0.65 45.03     0.106 A 
HETATM   11  N11 RQH A 403      29.963  -5.265   1.207  0.65 41.15    -0.361 N 
HETATM   12  C12 RQH A 403      28.932  -4.596   1.759  0.65 45.72     0.185 A 
ATOM     13  H11 RQH A 403      30.489  -4.988   0.378  1.00  0.00     0.166 HD
ENDBRANCH   1   8
BRANCH   1  14
HETATM   14  O13 RQH A 403      27.127  -5.971   4.697  0.65 53.64    -0.318 OA
BRANCH  14  15
HETATM   15  C14 RQH A 403      25.861  -6.407   4.952  0.65 50.78     0.072 A 
HETATM   16  C15 RQH A 403      25.184  -7.174   3.971  0.65 47.71     0.038 A 
HETATM   17  C16 RQH A 403      23.884  -7.618   4.231  0.65 42.71     0.026 A 
HETATM   18  C17 RQH A 403      23.302  -7.285   5.453  0.65 39.10     0.034 A 
HETATM   19  C18 RQH A 403      23.966  -6.540   6.397  0.65 44.27     0.026 A 
HETATM   20 CL1  RQH A 403      21.708  -7.791   5.829  0.65 27.11    -0.084 Cl
HETATM   21  C19 RQH A 403      25.246  -6.101   6.150  0.65 46.83     0.038 A 
ENDBRANCH  14  15
ENDBRANCH   1  14
TORSDOF 5
