REMARK  8 active torsions:
REMARK  status: ('A' for Active; 'I' for Inactive)
REMARK    1  A    between atoms: C09_15  and  C10_1 
REMARK    2  A    between atoms: C17_3  and  O26_27 
REMARK    3  A    between atoms: C20_4  and  C22_5 
REMARK    4  A    between atoms: C22_5  and  O23_24 
REMARK    5  A    between atoms: C02_8  and  C03_9 
REMARK    6  A    between atoms: C06_12  and  C09_15 
REMARK    7  A    between atoms: C18_21  and  O25_26 
REMARK    8  A    between atoms: C19_22  and  O24_25 
ROOT
HETATM    1  C10 RT2 A 401       8.636   2.981 -19.098  0.50 35.91    -0.053 A 
HETATM    2  C13 RT2 A 401      11.128   3.838 -18.157  0.50 32.18    -0.023 A 
HETATM    3  C17 RT2 A 401      12.724   1.552 -20.293  0.50 34.84     0.217 C 
HETATM    4  C20 RT2 A 401      13.886   3.870 -21.506  0.50 30.11     0.180 C 
HETATM    5  C28 RT2 A 401       8.710   3.751 -17.943  0.50 31.58     0.008 A 
HETATM    6  C11 RT2 A 401       9.805   2.672 -19.779  0.50 34.13     0.021 A 
HETATM    7  C12 RT2 A 401      11.065   3.102 -19.270  0.50 32.54     0.015 A 
HETATM    8  C14 RT2 A 401      12.612   4.125 -17.908  0.50 33.04     0.211 C 
HETATM    9  O15 RT2 A 401      13.307   3.107 -18.618  0.50 30.51    -0.344 OA
HETATM   10  C16 RT2 A 401      12.505   2.916 -19.776  0.50 33.84     0.223 C 
HETATM   11  C18 RT2 A 401      14.097   1.412 -20.971  0.50 34.11     0.183 C 
HETATM   12  C19 RT2 A 401      14.232   2.471 -22.084  0.50 29.47     0.180 C 
HETATM   13  O21 RT2 A 401      12.552   3.838 -20.898  0.50 34.28    -0.339 OA
HETATM   14  C27 RT2 A 401       9.937   4.168 -17.453  0.50 28.87     0.010 A 
ENDROOT
BRANCH   3  15
HETATM   15  O26 RT2 A 401      11.730   1.251 -21.245  0.50 38.94    -0.387 OA
HETATM   16  H26 RT2 A 401      11.020   0.762 -20.822  0.50  0.00     0.210 HD
ENDBRANCH   3  15
BRANCH  11  17
HETATM   17  O25 RT2 A 401      14.186   0.115 -21.508  0.50 31.18    -0.390 OA
HETATM   18  H25 RT2 A 401      15.037   0.004 -21.938  0.50  0.00     0.210 HD
ENDBRANCH  11  17
BRANCH   4  19
HETATM   19  C22 RT2 A 401      13.963   4.928 -22.637  0.50 28.31     0.198 C 
BRANCH  19  20
HETATM   20  O23 RT2 A 401      12.899   4.750 -23.534  0.50 23.73    -0.398 OA
HETATM   21  H23 RT2 A 401      13.230   4.376 -24.354  0.50  0.00     0.209 HD
ENDBRANCH  19  20
ENDBRANCH   4  19
BRANCH   1  22
HETATM   22  C09 RT2 A 401       7.246   2.515 -19.548  0.50 39.34     0.077 C 
BRANCH  22  23
HETATM   23  C06 RT2 A 401       7.115   1.333 -20.526  0.50 43.89    -0.054 A 
HETATM   24  C05 RT2 A 401       6.385   1.549 -21.686  0.50 44.14     0.008 A 
HETATM   25  C04 RT2 A 401       6.226   0.549 -22.624  0.50 38.56     0.007 A 
HETATM   26  C03 RT2 A 401       6.771  -0.706 -22.406  0.50 39.06    -0.059 A 
HETATM   27  C08 RT2 A 401       7.497  -0.940 -21.241  0.50 40.12     0.007 A 
HETATM   28  C07 RT2 A 401       7.683   0.080 -20.310  0.50 41.19     0.008 A 
BRANCH  26  29
HETATM   29  C02 RT2 A 401       6.556  -1.791 -23.471  0.50 39.21     0.034 C 
HETATM   30  C01 RT2 A 401       7.729  -2.739 -23.704  0.50 38.49     0.010 C 
ENDBRANCH  26  29
ENDBRANCH  22  23
ENDBRANCH   1  22
BRANCH  12  31
HETATM   31  O24 RT2 A 401      15.555   2.498 -22.580  0.50 29.41    -0.390 OA
HETATM   32  H24 RT2 A 401      15.780   1.637 -22.940  0.50  0.00     0.210 HD
ENDBRANCH  12  31
TORSDOF 8
