REMARK  1 active torsions:
REMARK  status: ('A' for Active; 'I' for Inactive)
REMARK    1  A    between atoms: C7@B_7  and  N2@B_15 
ROOT
HETATM    1  C1  R9W A 504       6.851  33.503  -1.418  0.69 24.10     0.005 C 
HETATM    2  C2  R9W A 504       7.616  32.439  -2.191  0.69 23.90     0.006 C 
HETATM    3  C3  R9W A 504       7.607  31.055  -1.621  0.69 22.83     0.057 C 
HETATM    4  C4  R9W A 504       6.356  30.585  -1.019  0.69 23.38     0.018 A 
HETATM    5  C5  R9W A 504       5.344  31.551  -0.719  0.69 23.05    -0.009 A 
HETATM    6  C6  R9W A 504       5.505  33.021  -0.978  0.69 24.09     0.043 C 
HETATM    7  C7  R9W A 504       4.153  31.021  -0.131  0.69 23.17     0.042 A 
HETATM    8  C8  R9W A 504       3.949  29.728   0.125  0.69 23.52    -0.009 A 
HETATM    9  C9  R9W A 504       2.773  28.961   0.735  0.69 24.38     0.043 C 
HETATM   10  C10 R9W A 504       3.335  27.564   1.110  0.69 24.32     0.011 C 
HETATM   11  C11 R9W A 504       4.593  27.377   0.149  0.69 24.16     0.058 C 
HETATM   12  C12 R9W A 504       5.024  28.839  -0.233  0.69 23.95     0.018 A 
HETATM   13  N1  R9W A 504       6.181  29.299  -0.801  0.69 21.74    -0.362 N 
ATOM     14  H1  R9W A 504       6.915  28.639  -1.058  1.00  0.00     0.165 HD
ENDROOT
BRANCH   7  15
HETATM   15  N2  R9W A 504       3.138  32.022   0.176  0.69 22.10    -0.398 N 
HETATM   16 1HN2 R9W A 504       3.312  32.996  -0.028  0.69  0.00     0.156 HD
HETATM   17 2HN2 R9W A 504       2.261  31.742   0.592  0.69  0.00     0.156 HD
ENDBRANCH   7  15
TORSDOF 1
