REMARK  4 active torsions:
REMARK  status: ('A' for Active; 'I' for Inactive)
REMARK    1  A    between atoms: C5@A_3  and  N6@A_4 
REMARK       I    between atoms: C7@A_5  and  N6@A_4 
REMARK    2  A    between atoms: C7@A_5  and  C9@A_7 
REMARK    3  A    between atoms: C13@A_12  and  N14@A_13 
REMARK       I    between atoms: C15@A_14  and  N14@A_13 
REMARK    4  A    between atoms: C15@A_14  and  C17@A_16 
ROOT
HETATM    1  C9 ALZE A 401      20.052   0.672  -6.215  0.72 47.22     0.144 A 
HETATM    2  N10ALZE A 401      21.002  -0.098  -6.831  0.72 47.65    -0.294 N 
ATOM      3  H10ALZE A 401      20.905  -1.060  -7.154  1.00  0.00     0.187 HD
HETATM    4  N11ALZE A 401      22.090   0.687  -6.918  0.72 47.17    -0.309 N 
HETATM    5  C12ALZE A 401      21.902   1.957  -6.386  0.72 46.66     0.139 A 
HETATM    6  C13ALZE A 401      20.581   1.969  -5.930  0.72 46.47     0.086 A 
HETATM    7  H11ALZE A 401      22.960   0.384  -7.330  0.72  0.00     0.186 HD
ENDROOT
BRANCH   1   8
HETATM    8  C7 ALZE A 401      18.680   0.299  -5.892  0.72 47.01     0.272 C 
HETATM    9  N6 ALZE A 401      18.334  -0.943  -6.327  0.72 45.54    -0.351 N 
HETATM   10  H6 ALZE A 401      19.018  -1.504  -6.816  0.72  0.00     0.163 HD
HETATM   11  O8 ALZE A 401      17.914   1.065  -5.286  0.72 48.53    -0.266 OA
BRANCH   9  12
HETATM   12  C5 ALZE A 401      16.990  -1.485  -6.102  0.72 45.88     0.087 C 
HETATM   13  C25ALZE A 401      16.955  -2.261  -4.807  0.72 46.84     0.052 C 
HETATM   14  C26ALZE A 401      15.549  -2.881  -4.670  0.72 45.95     0.234 C 
HETATM   15  N24ALZE A 401      15.189  -3.737  -5.823  0.72 45.03    -0.075 N 
HETATM   16  C3 ALZE A 401      15.292  -2.992  -7.114  0.72 44.78     0.234 C 
HETATM   17 2H24ALZE A 401      15.815  -4.529  -5.851  0.72  0.00     0.277 HD
HETATM   18 3H24ALZE A 401      14.242  -4.067  -5.706  0.72  0.00     0.277 HD
HETATM   19  C4 ALZE A 401      16.683  -2.369  -7.310  0.72 44.74     0.052 C 
ENDBRANCH   9  12
ENDBRANCH   1   8
BRANCH   6  20
HETATM   20  N14ALZE A 401      19.842   2.967  -5.325  0.72 45.12    -0.319 N 
HETATM   21  C15ALZE A 401      20.344   4.240  -5.175  0.72 44.71     0.259 C 
HETATM   22  O16ALZE A 401      21.452   4.616  -5.543  0.72 41.46    -0.267 OA
HETATM   23  H14ALZE A 401      18.914   2.758  -4.985  0.72  0.00     0.169 HD
BRANCH  21  24
HETATM   24  C17ALZE A 401      19.355   5.108  -4.500  0.72 49.47     0.075 A 
HETATM   25  C18ALZE A 401      19.580   5.494  -3.192  0.72 51.35     0.051 A 
HETATM   26  C20ALZE A 401      18.685   6.310  -2.527  0.72 51.78     0.025 A 
HETATM   27 CL7@ALZE A 401      21.000   4.950  -2.407  0.72 51.42    -0.083 Cl
HETATM   28  C21ALZE A 401      17.536   6.731  -3.197  0.72 51.52     0.003 A 
HETATM   29  C22ALZE A 401      17.290   6.347  -4.505  0.72 51.28     0.025 A 
HETATM   30  C23ALZE A 401      18.213   5.539  -5.144  0.72 51.36     0.051 A 
HETATM   31 CL1@ALZE A 401      17.923   5.042  -6.757  0.72 53.57    -0.083 Cl
ENDBRANCH  21  24
ENDBRANCH   6  20
TORSDOF 4
