REMARK  4 active torsions:
REMARK  status: ('A' for Active; 'I' for Inactive)
REMARK    1  A    between atoms: C14_18  and  C15_3 
REMARK    2  A    between atoms: C15_3  and  C16_19 
REMARK    3  A    between atoms: C05_13  and  N08_23 
REMARK    4  A    between atoms: C14_18  and  N11_24 
ROOT
HETATM    1  C10 RMZ A 409       4.824   3.352 -22.290  0.41 52.54     0.249 C 
HETATM    2  C13 RMZ A 409       3.168   1.085 -22.928  0.41 52.59     0.123 C 
HETATM    3  C09 RMZ A 409       3.267   3.517 -22.811  0.41 52.51     0.123 C 
HETATM    4  C12 RMZ A 409       4.667   0.959 -22.414  0.41 52.78     0.249 C 
HETATM    5  N08 RMZ A 409       2.843   2.350 -23.636  0.41 52.23    -0.280 NA
HETATM    6  N11 RMZ A 409       5.060   2.098 -21.669  0.41 52.76    -0.069 N 
HETATM    7  H11 RMZ A 409       4.522   2.089 -20.814  0.41  0.00     0.280 HD
ENDROOT
BRANCH   6   8
HETATM    8  C14 RMZ A 409       6.550   1.887 -21.268  0.41 52.47     0.237 C 
BRANCH   8   9
HETATM    9  C15 RMZ A 409       7.131   3.155 -20.597  0.41 52.37     0.057 C 
BRANCH   9  10
HETATM   10  C16 RMZ A 409       7.856   2.944 -19.247  0.41 52.04     0.120 A 
HETATM   11  C17 RMZ A 409       9.384   2.755 -19.282  0.41 51.32    -0.020 A 
HETATM   12  C18 RMZ A 409      10.219   1.776 -19.830  0.41 51.00     0.010 A 
HETATM   13  C22 RMZ A 409      10.006   3.828 -18.598  0.41 51.33     0.040 A 
HETATM   14  C19 RMZ A 409      11.622   1.859 -19.710  0.41 50.92     0.001 A 
HETATM   15  C20 RMZ A 409      12.206   2.927 -19.035  0.41 50.94     0.001 A 
HETATM   16  C21 RMZ A 409      11.383   3.913 -18.480  0.41 50.96     0.017 A 
HETATM   17  C23 RMZ A 409       8.932   4.690 -18.129  0.41 51.46     0.252 A 
HETATM   18  N25 RMZ A 409       7.707   4.206 -18.469  0.41 51.78    -0.348 N 
HETATM   19  O24 RMZ A 409       9.021   5.762 -17.476  0.41 52.05    -0.268 OA
HETATM   20  H25 RMZ A 409       6.826   4.638 -18.229  0.41  0.00     0.163 HD
ENDBRANCH   9  10
ENDBRANCH   8   9
ENDBRANCH   6   8
BRANCH   5  21
HETATM   21  C05 RMZ A 409       1.359   2.422 -23.921  0.41 51.56     0.011 A 
HETATM   22  C04 RMZ A 409       0.775   3.603 -24.469  0.41 51.64     0.030 A 
HETATM   23  C03 RMZ A 409      -0.600   3.775 -24.768  0.41 51.25    -0.054 A 
HETATM   24  C02 RMZ A 409      -1.507   2.722 -24.522  0.41 51.02    -0.056 A 
HETATM   25  C26 RMZ A 409      -1.137   5.055 -25.356  0.41 50.73     0.049 C 
HETATM   26  C01 RMZ A 409      -2.990   2.844 -24.831  0.41 50.79     0.049 C 
HETATM   27  C07 RMZ A 409      -0.949   1.551 -23.989  0.41 50.89     0.009 A 
HETATM   28  C06 RMZ A 409       0.422   1.400 -23.697  0.41 50.92     0.024 A 
ENDBRANCH   5  21
TORSDOF 4
