REMARK  6 active torsions:
REMARK  status: ('A' for Active; 'I' for Inactive)
REMARK    1  A    between atoms: C16_15  and  C17_3 
REMARK       I    between atoms: C17_3  and  N19_16 
REMARK    2  A    between atoms: C04_7  and  C07_10 
REMARK    3  A    between atoms: C07_10  and  C08_11 
REMARK    4  A    between atoms: C07_10  and  S14_20 
REMARK    5  A    between atoms: C16_15  and  S14_20 
REMARK    6  A    between atoms: N19_16  and  O20_19 
ROOT
HETATM    1  C07 RNW A 405       9.731  -1.524  23.734  0.65 36.60     0.145 C 
ENDROOT
BRANCH   1   2
HETATM    2  C04 RNW A 405      11.130  -1.002  23.494  0.65 37.73    -0.038 A 
HETATM    3  C03 RNW A 405      11.770  -0.167  24.409  0.65 36.97     0.009 A 
HETATM    4  C02 RNW A 405      12.984   0.451  24.113  0.65 38.27     0.001 A 
HETATM    5  C01 RNW A 405      13.601   0.253  22.888  0.65 31.28     0.000 A 
HETATM    6  C06 RNW A 405      12.982  -0.576  21.961  0.65 29.33     0.001 A 
HETATM    7  C05 RNW A 405      11.767  -1.193  22.258  0.65 40.33     0.009 A 
ENDBRANCH   1   2
BRANCH   1   8
HETATM    8  C08 RNW A 405       9.899  -2.631  24.743  0.65 40.16    -0.038 A 
HETATM    9  C09 RNW A 405      10.608  -3.797  24.448  0.65 36.74     0.009 A 
HETATM   10  C10 RNW A 405      10.539  -4.902  25.294  0.65 35.18     0.001 A 
HETATM   11  C11 RNW A 405       9.764  -4.867  26.444  0.65 42.05     0.000 A 
HETATM   12  C12 RNW A 405       9.055  -3.714  26.746  0.65 40.24     0.001 A 
HETATM   13  C13 RNW A 405       9.122  -2.610  25.906  0.65 37.83     0.009 A 
ENDBRANCH   1   8
BRANCH   1  14
HETATM   14  S14 RNW A 405       8.744  -2.404  22.385  0.65 48.49     0.037 S 
HETATM   15  O15 RNW A 405       8.550  -1.408  21.347  0.65 47.47    -0.257 OA
BRANCH  14  16
HETATM   16  C16 RNW A 405       7.029  -2.974  22.788  0.65 36.69     0.214 C 
BRANCH  16  17
HETATM   17  C17 RNW A 405       6.640  -4.213  22.025  0.65 43.52     0.252 C 
HETATM   18  N19 RNW A 405       6.276  -3.960  20.635  0.65 44.11    -0.237 N 
HETATM   19  H19 RNW A 405       6.212  -3.009  20.300  0.65  0.00     0.197 HD
HETATM   20  O18 RNW A 405       6.720  -5.350  22.441  0.65 48.41    -0.270 OA
BRANCH  18  21
HETATM   21  O20 RNW A 405       6.024  -4.985  19.789  0.65 40.05    -0.287 OA
HETATM   22  H20 RNW A 405       6.546  -5.748  20.045  0.65  0.00     0.244 HD
ENDBRANCH  18  21
ENDBRANCH  16  17
ENDBRANCH  14  16
ENDBRANCH   1  14
TORSDOF 6
