REMARK  1 active torsions:
REMARK  status: ('A' for Active; 'I' for Inactive)
REMARK    1  A    between atoms: C03@B_3  and  N06@B_10 
ROOT
HETATM    1  C07 S7W A 401      18.766 -17.555   1.419  0.50 26.05     0.146 A 
HETATM    2  C08 S7W A 401      19.523 -16.817   2.270  0.50 80.97     0.199 A 
HETATM    3  C09 S7W A 401      20.282 -17.367   3.402  0.50 57.60     0.289 A 
HETATM    4  C12 S7W A 401      19.378 -19.579   2.659  0.50 92.84     0.331 A 
HETATM    5  F14 S7W A 401      19.619 -15.488   2.119  0.50 69.21    -0.199 F 
HETATM    6  N06 S7W A 401      18.679 -18.952   1.588  0.50 49.44    -0.279 N 
HETATM    7  N11 S7W A 401      20.154 -18.762   3.524  0.50 40.09    -0.273 N 
HETATM    8  O10 S7W A 401      20.971 -16.740   4.190  0.50110.43    -0.265 OA
HETATM    9  O13 S7W A 401      19.327 -20.787   2.840  0.50 58.26    -0.246 OA
HETATM   10  H11 S7W A 401      20.648 -19.214   4.279  0.50  0.00     0.173 HD
ENDROOT          
BRANCH   6  11   
HETATM   11  C03 S7W A 401      17.833 -19.767   0.650  0.50 55.52     0.232 C 
HETATM   12  C02 S7W A 401      16.666 -20.541   1.320  0.50108.74     0.056 C 
HETATM   13  C01 S7W A 401      15.468 -20.322   0.410  0.50 31.79     0.031 C 
HETATM   14  C05 S7W A 401      15.953 -19.294  -0.620  0.50 36.17     0.170 C 
HETATM   15  O04 S7W A 401      17.235 -18.838  -0.246  0.50 36.94    -0.366 OA
ENDBRANCH   6  11
TORSDOF 1
