REMARK  2 active torsions:
REMARK  status: ('A' for Active; 'I' for Inactive)
REMARK    1  A    between atoms: CAN_6  and  NAJ_9 
REMARK    2  A    between atoms: CAK_11  and  NAJ_9 
ROOT
HETATM    1  NAJ CLU A 401      15.059 -26.536   4.123  0.80 59.38    -0.330 N 
ATOM      2  HAJ CLU A 401      15.196 -27.546   4.081  1.00  0.00     0.168 HD
ENDROOT
BRANCH   1   3
HETATM    3  CAK CLU A 401      13.719 -26.033   3.862  0.80 70.71     0.153 C 
HETATM    4  NAI CLU A 401      13.402 -24.753   3.847  0.80 37.05    -0.365 N 
HETATM    5  CAG CLU A 401      12.022 -24.596   3.317  0.80 52.65     0.137 C 
HETATM    6  HAI CLU A 401      14.003 -23.999   4.148  0.80  0.00     0.162 HD
HETATM    7  CAF CLU A 401      11.416 -25.997   3.332  0.80107.36     0.114 C 
HETATM    8  NAH CLU A 401      12.594 -26.872   3.577  0.80 99.88    -0.263 NA
HETATM    9  HAH CLU A 401      12.782 -27.430   2.757  0.80  0.00     0.130 HD
ENDBRANCH   1   3
BRANCH   1  10
HETATM   10  CAN CLU A 401      16.227 -25.714   4.441  0.80 76.96     0.078 A 
HETATM   11  CAL CLU A 401      16.936 -24.944   3.499  0.80 77.21     0.062 A 
HETATM   12  CAD CLU A 401      18.041 -24.131   3.812  0.80 69.26     0.026 A 
HETATM   13 CL1  CLU A 401      16.392 -24.975   1.850  0.80 69.69    -0.082 Cl
HETATM   14  CAC CLU A 401      18.508 -24.081   5.130  0.80 65.24     0.003 A 
HETATM   15  CAE CLU A 401      17.852 -24.821   6.109  0.80 49.41     0.026 A 
HETATM   16  CAM CLU A 401      16.744 -25.600   5.748  0.80 82.70     0.062 A 
HETATM   17 CL2  CLU A 401      15.973 -26.500   6.972  0.80143.07    -0.082 Cl
ENDBRANCH   1  10
TORSDOF 2
